Geom Title=test3
Program Version=4.10
Viewing Rectangle= 455059 , 526269 , 1662342 , 1564042 

River Reach=Nangka          ,Nangka River    
Reach XY= 56 
  514322.09426871620743.78459882514378.6839794011620941.84858597
514361.7070662161621213.47919693514174.9610211871621547.35848955
513976.8970340351621802.01218732 513920.307323421622028.37102978
513982.5560050971622237.75295905513784.4920179451622311.31958285
513541.1562623011622384.88620665513405.3409568251622475.42974364
513320.4563909031622356.59135135513258.2077092271622277.36575648
513263.8666802881622209.45810375513320.4563909031622118.91456676
513209.1806250691622096.32714326513111.0744616281622062.32485615
512969.6001850911622073.64279827512873.3976770461622181.16324844
512788.5131111231622350.93238028512799.8310532461622464.11180151
512833.7848796151622532.01945425512731.9234005081622662.17578867
512658.356776709 1622730.0834414512556.4952976021622690.47064397
512460.2927895571622684.81167291512420.6799921271622769.69623883
512420.6799921271622837.60389157512364.0902815121622888.53463113
512284.8646866511622911.17051537512211.2980628521622871.55771794
512194.3211496671622831.94492051512256.5698313441622758.37829671
512233.9339470981622696.12961503512143.390410114 1622656.5168176
512069.823786315 1622656.5168176512018.8930467611622684.81167291
511962.3033361461622747.06035459511922.6905387161622781.01418096
511854.7828859781622769.69623883 511860.441857041622696.12961503
511883.077741286 1622628.2219623511883.0777412861622520.70151213
511837.8059727941622469.77077258511764.2393489941622464.11180151
511696.3316962571622503.72459894511668.0368409491622565.97328062
511679.354783072 1622628.2219623511713.3086094411622673.49373079
511735.9444936871622718.76549928511758.5803779331622797.99109414
511735.9444936871622826.28594945511656.7188988261622865.89874688
511566.1753618421622928.14742856511498.2677091051622962.10125492
511390.7472589361623052.64479191511362.4524036291623063.96273403
Rch Text X Y=513582.1838024,1621323.8291326
Reverse River Text= 0 

Type RM Length L Ch R = 1 ,10      ,46.68,46.68,46.68
BEGIN DESCRIPTION:
0
END DESCRIPTION:
XS GIS Cut Line=7
 513647.931567851622202.98806157513679.7394032991622301.48974557
513683.3957392631622312.81259243513688.3103851781622328.03214107
513693.2250310931622343.25168971513695.9973166981622351.83683223
513731.2959915561622461.14885761
Node Last Edited Time=Nov/09/2012 10:39:56
#Sta/Elev= 150 
  -135.5    33.2 -133.68   33.16 -131.86   33.37 -130.04   32.94 -128.22   33.14
  -126.4   32.83 -124.58   32.78 -122.75   32.82 -120.93   32.75 -119.11   32.75
 -117.29   32.78 -115.47    32.7 -113.65   32.59 -111.83   32.57 -110.01   32.53
 -108.19    32.6 -106.37   32.54 -104.55   32.44 -102.73   32.47 -100.91   32.42
  -99.08   32.43  -97.26   32.42  -95.44   32.41  -93.62   32.38   -91.8   32.34
  -89.98   32.33  -88.16   32.35  -86.34   32.29  -84.52   32.23   -82.7   32.29
  -80.88   32.28  -79.06   32.23  -77.24   32.21  -75.42   32.17  -73.59   32.19
  -71.77   32.14  -69.95   32.16  -68.13   32.14  -66.31   32.28  -64.49   32.27
  -62.67   32.33  -60.85   32.35  -59.03   32.35  -57.21   32.52  -55.39   32.14
  -53.57   32.02  -51.75   31.98  -49.92   31.81   -48.1   31.56  -46.28   31.47
  -44.46   31.03  -42.64   31.69  -40.82    31.7     -39   31.68  -37.18   31.12
  -35.36   31.44  -33.54   31.69  -31.72    31.8   -29.9   31.67  -28.08   31.41
  -26.25   31.24  -24.43   30.67  -22.61   29.89  -20.79   29.29  -18.97   28.91
  -17.15      29  -15.33   28.94  -13.51    28.9  -11.69   28.76   -9.87    28.8
   -8.05   28.65   -6.23   28.44   -4.41   28.35   -2.58   28.19    -.76   28.23
    1.06   28.43    2.88   28.51     4.7   28.34    6.52   28.25    8.34   28.23
   10.16   28.19   11.98    28.2    13.8    28.4   15.62   28.39   17.44   28.48
   19.26   28.79   21.08    29.5   22.91   30.25   24.73    30.2   26.55   30.63
   28.37   31.04   30.19   31.45   32.01   31.66   33.83   32.04   35.65   32.12
   37.47   32.15   39.29   32.18   41.11   32.17   42.93   32.21   44.75   32.22
   46.58   32.26    48.4   32.24   50.22   32.24   52.04   32.24   53.86   32.23
   55.68   32.23    57.5   32.23   59.32   32.29   61.14    32.2   62.96   32.18
   64.78   32.11    66.6   32.02   68.42   32.06   70.25    32.1   72.07   32.12
   73.89   32.14   75.71   32.14   77.53   32.17   79.35    32.2   81.17    32.2
   82.99   32.23   84.81   32.24   86.63    32.3   88.45   32.35   90.27   32.38
   92.09   32.46   93.92   32.51   95.74   32.56   97.56    32.6   99.38   32.61
   101.2    32.7  103.02   32.74  104.84   32.84  106.66   32.85  108.48   32.85
   110.3   32.89  112.12   32.97  113.94    33.1  115.76   33.18  117.58   33.22
  119.41   33.38  121.23   33.53  123.05   33.87  124.87   34.38  126.69   34.92
  128.51   35.43  130.33   35.51  132.15   35.94  133.97   36.29  135.79   36.63
#Mann= 3 ,-1 , 0 
  -135.5      .2       0  -26.25     .03       0   24.73      .2       0
Bank Sta=-26.25,24.73
XS Rating Curve= 0 ,0
XS HTab Starting El and Incr=28.16,0.3, 60 
Exp/Cntr=0.3,0.1

Type RM Length L Ch R = 1 ,9.92307*,45.69,45.69,45.69
XS GIS Cut Line=7
513605.5228995471622219.58792126513605.5228995471622219.58792126
513644.9942813071622345.54827225513648.8864700711622357.96895379
513652.0755781071622368.14343434513683.6269679651622468.80449656
513684.6737957851622472.14427971
Node Last Edited Time=Nov/09/2012 10:39:56
#Sta/Elev= 150 
    -132   32.89 -130.22    32.9 -128.45   32.79 -126.67   32.75 -124.89   32.83
 -123.12    32.9 -121.34   33.02 -119.57   33.38 -117.79   33.65 -116.01   33.88
 -114.24   33.87 -112.46   33.89 -110.68   33.93 -108.91   33.73 -107.13   33.47
 -105.36   33.38 -103.58   33.36  -101.8   33.37 -100.03   33.26  -98.25   33.24
  -96.47   33.26   -94.7   33.24  -92.92   33.23  -91.15   33.21  -89.37   33.19
  -87.59   33.18  -85.82   33.17  -84.04   33.15  -82.26   33.13  -80.49   33.12
  -78.71    33.1  -76.93   33.08  -75.16   33.07  -73.38   33.06  -71.61   33.04
  -69.83   33.03  -68.05   33.01  -66.28      33   -64.5   32.98  -62.72   32.96
  -60.95   32.95  -59.17   32.93   -57.4   32.92  -55.62   32.93  -53.84   32.93
  -52.07   32.91  -50.29   32.87  -48.51   32.88  -46.74   32.85  -44.96   32.05
  -43.18   30.96  -41.41   30.66  -39.63    30.6  -37.86   30.45  -36.08   30.68
   -34.3   30.83  -32.53   30.95  -30.75   31.21  -28.97   31.19   -27.2   31.46
  -25.42   31.38  -23.65    31.4  -21.87    31.4  -20.09   31.41  -18.32   31.53
  -16.54   31.43  -14.76   31.27  -12.99   31.03  -11.21    30.6   -9.44   30.38
   -7.66   29.77   -5.88   29.25   -4.11   28.73   -2.33   28.57    -.55    28.3
    1.22   28.42       3    28.4    4.78   28.34    6.55    28.2    8.33   28.16
    10.1   28.24   11.88   28.21   13.66   28.19   15.43    28.1   17.21   28.41
   18.99   28.51   20.76   29.02   22.54   29.36   24.31    30.3   26.09   31.06
   27.87   31.32   29.64    31.5   31.42   31.59    33.2   31.59   34.97    31.6
   36.75    31.6   38.52   31.61    40.3    31.6   42.08   31.65   43.85   31.63
   45.63   31.63   47.41   31.61   49.18   31.69   50.96   31.75   52.74    31.8
   54.51    31.8   56.29   31.79   58.06   31.81   59.84   31.81   61.62    31.9
   63.39      32   65.17   31.96   66.95   31.97   68.72   32.11    70.5   32.18
   72.27   32.23   74.05    32.2   75.83   32.19    77.6    32.1   79.38   32.06
   81.16   31.99   82.93   31.93   84.71   31.94   86.49   31.97   88.26   31.95
   90.04   32.06   91.81   32.03   93.59   31.85   95.37   31.69   97.14   31.65
   98.92   31.69   100.7   31.82  102.47   31.93  104.25   32.05  106.02   32.14
   107.8   32.27  109.58   32.38  111.35   32.41  113.13    32.5  114.91   32.59
  116.68   32.65  118.46   32.71  120.23   32.78  122.01   32.83  123.79   32.85
  125.56   32.86  127.34   33.08  129.12   33.26  130.89   33.21  132.67   33.15
#Mann= 3 ,-1 , 0 
    -132      .2       0  -14.76     .03       0   27.87      .2       0
Bank Sta=-14.76,27.87
XS Rating Curve= 0 ,0
XS HTab Starting El and Incr=28.21,0.3, 60 
Exp/Cntr=0.3,0.1

Type RM Length L Ch R = 6 ,9.904   ,,,
BEGIN DESCRIPTION:
S2788073_to_chan
END DESCRIPTION:
Node Last Edited Time=Oct/11/2012 15:01:28
Lateral Weir Pos= 0 
Lateral Weir End=                ,                ,        ,S2788073        
Lateral Weir Distance=1
Lateral Weir TW Multiple XS=0
Lateral Weir WD=20
Lateral Weir Coef=0.3
Lateral Weir WSCriteria=-1 
Lateral Weir Flap Gates= 0 
Lateral Weir Hagers EQN= 0 ,,,,,
Lateral Weir SS=0.05,0.05,
Lateral Weir Type= 0 
Lateral Weir Connection Pos and Dist= 0 ,
Lateral Weir SE= 4 
       0   31.52   14.23   31.14   28.46   30.85   42.69   31.05
Lateral Weir HW RS Station=9.92307 ,-0.019
Lateral Weir TW RS Station=,0
LW Div RC= 0 ,False,

Type RM Length L Ch R = 1 ,9.84615*,46.93,46.93,46.93
XS GIS Cut Line=5
513589.5133553131622332.39956106513593.8991997361622342.70169282
513600.2939938341622358.18855346513606.6887879311622373.67541409
513611.474674178 1622385.0099463
Node Last Edited Time=Nov/09/2012 10:39:56
#Sta/Elev= 57 
  -30.57   30.99  -29.55   30.96  -28.54   30.95  -27.52   31.01   -26.5   30.92
  -25.48   30.62  -24.46   30.29  -23.45   30.44  -22.43   30.07  -21.41   29.48
  -20.39      29  -19.37   28.57  -18.36   28.14  -17.34   27.65  -16.32   27.59
   -15.3    27.6  -14.28    27.6  -13.27   27.68  -12.25   27.67  -11.23   27.84
  -10.21   27.96   -9.19   28.15   -8.18   28.15   -7.16   28.15   -6.14   28.16
   -5.12   28.19    -4.1   28.23   -3.09   28.26   -2.07   28.35   -1.05   28.35
    -.03   28.38     .99   28.29       2   28.09    3.02   28.05    4.04      28
    5.06      28    6.08   27.96    7.09   27.99    8.11   28.07    9.13   28.14
   10.15   28.17   11.17   28.27   12.19   28.35    13.2   28.45   14.22   28.84
   15.24   29.43   16.26   29.86   17.28   30.28   18.29   30.87   19.31   31.16
   20.33   31.35   21.35   31.44   22.37   31.52   23.38   31.69    24.4   31.66
   25.42   31.67   26.44   31.67
#Mann= 3 ,-1 , 0 
  -30.57      .2       0  -19.37     .03       0    13.2      .2       0
Bank Sta=-19.37,13.2
XS Rating Curve= 0 ,0
XS HTab Starting El and Incr=27.64,0.3, 60 
Exp/Cntr=0.3,0.1

Type RM Length L Ch R = 6 ,9.788   ,,,
BEGIN DESCRIPTION:
S1955852_to_chan
END DESCRIPTION:
Node Last Edited Time=Sep/27/2012 14:35:16
Lateral Weir Pos= 3 
Lateral Weir End=                ,                ,        ,S1955852        
Lateral Weir Distance=1
Lateral Weir TW Multiple XS=-1
Lateral Weir WD=20
Lateral Weir Coef=0.3
Lateral Weir WSCriteria=-1 
Lateral Weir Flap Gates= 0 
Lateral Weir Hagers EQN= 0 ,,,,,
Lateral Weir SS=0.05,0.05,
Lateral Weir Type= 0 
Lateral Weir Connection Pos and Dist= 0 ,
Lateral Weir SE= 9 
       0   31.31   34.16   30.86   68.32   30.51  102.48    30.6  136.64   30.32
   170.8   30.01  204.96   31.83  239.12   32.77  273.28   32.53
Lateral Weir HW RS Station=9.84615 ,-0.058
Lateral Weir TW RS Station=,0
LW Div RC= 0 ,False,

Type RM Length L Ch R = 1 ,9.76923*,43.8,44.27,43.8
XS GIS Cut Line=5
 513546.719447921622348.01682197513550.6357377841622358.13110217
513556.5973100911622374.19676599513562.5588823981622390.26242981
513567.5000309561622403.30208298
Node Last Edited Time=Nov/09/2012 10:39:56
#Sta/Elev= 59 
  -29.86   33.44  -28.85   33.44  -27.83   33.46  -26.81   33.47  -25.79   33.36
  -24.77   33.36  -23.76   33.28  -22.74   32.49  -21.72   32.17   -20.7   31.15
  -19.68   30.52  -18.66   29.88  -17.65    29.3  -16.63   28.92  -15.61   28.54
  -14.59    28.2  -13.57   27.85  -12.55   27.51  -11.54   27.48  -10.52   27.49
    -9.5   27.52   -8.48   27.51   -7.46   27.51   -6.44   27.51   -5.43   27.69
   -4.41   27.89   -3.39   27.92   -2.37   27.95   -1.35   28.07    -.33   28.05
     .68   28.02     1.7   28.01    2.72   28.02    3.74   28.06    4.76   28.09
    5.78   28.08    6.79   28.15    7.81   28.23    8.83   28.28    9.85   28.32
   10.87   28.54   11.89   28.71    12.9   28.89   13.92   29.13   14.94   29.13
   15.96   29.31   16.98   29.54      18   29.69   19.01   29.89   20.03   30.16
   21.05   30.35   22.07   30.46   23.09   30.58   24.11    30.7   25.12   30.83
   26.14   30.85   27.16   30.86   28.18   31.07    29.2   31.08
#Mann= 3 ,-1 , 0 
  -29.86      .2       0  -15.61     .03       0    8.83      .2       0
Bank Sta=-15.61,8.83
XS Rating Curve= 0 ,0
XS HTab Starting El and Incr=27.53,0.3, 60 
Exp/Cntr=0.3,0.1

Type RM Length L Ch R = 6 ,9.75    ,,,
BEGIN DESCRIPTION:
S1955853_to_chan
END DESCRIPTION:
Node Last Edited Time=Sep/27/2012 14:35:16
Lateral Weir Pos= 0 
Lateral Weir End=                ,                ,        ,S1955853        
Lateral Weir Distance=1
Lateral Weir TW Multiple XS=-1
Lateral Weir WD=20
Lateral Weir Coef=0.3
Lateral Weir WSCriteria=-1 
Lateral Weir Flap Gates= 0 
Lateral Weir Hagers EQN= 0 ,,,,,
Lateral Weir SS=0.05,0.05,
Lateral Weir Type= 0 
Lateral Weir Connection Pos and Dist= 0 ,
Lateral Weir SE= 15 
       0   33.25  39.315   32.74   78.63   33.07 117.945   33.03  157.26    31.9
 196.575   33.11  235.89   30.27 275.205    29.9  314.52    33.1 353.835   33.98
  393.15    29.9 432.465    29.9  471.78    29.9 511.095   33.97  550.41   32.96
Lateral Weir HW RS Station=9.76923 ,-0.019
Lateral Weir TW RS Station=,0
LW Div RC= 0 ,False,

Type RM Length L Ch R = 1 ,9.69230*,46.54,46.54,46.54
XS GIS Cut Line=5
513497.9798934381622373.19979135513504.8104527961622381.16798243
513515.8238352091622394.78969859513526.8372176221622408.41141475
513536.809674561 1622420.3886505
Node Last Edited Time=Nov/09/2012 10:39:56
#Sta/Elev= 61 
  -29.16    33.9  -28.14   33.63  -27.12   33.33   -26.1    33.3  -25.08      33
  -24.06   32.74  -23.04   32.74  -22.03   32.74  -21.01    32.7  -19.99    32.7
  -18.97   32.75  -17.95   32.72  -16.93   32.66  -15.91   31.83   -14.9   30.76
  -13.88   30.76  -12.86   29.87  -11.84   29.24  -10.82   28.98    -9.8   28.38
   -8.78   27.98   -7.77    27.8   -6.75   27.67   -5.73    27.5   -4.71   27.51
   -3.69   27.52   -2.67    27.5   -1.65   27.49    -.64   27.48     .38   27.48
     1.4   27.47    2.42   27.47    3.44   27.48    4.46   27.53    5.48   27.53
    6.49   27.79    7.51   27.98    8.53   28.18    9.55   28.18   10.57   28.17
   11.59   28.13   12.61   28.13   13.62   28.33   14.64   28.48   15.66    28.6
   16.68   28.89    17.7   29.05   18.72   29.32   19.74   29.32   20.75   29.58
   21.77   29.85   22.79   29.98   23.81   30.24   24.83   30.37   25.85   30.41
   26.87   30.41   27.88   30.38    28.9   30.38   29.92   30.36   30.94   30.37
   31.96    30.4
#Mann= 3 ,-1 , 0 
  -29.16      .2       0    -9.8     .03       0    8.53      .2       0
Bank Sta=-9.8,8.53
XS Rating Curve= 0 ,0
XS HTab Starting El and Incr=27.52,0.3, 60 
Exp/Cntr=0.3,0.1

Type RM Length L Ch R = 1 ,9.61538*,46.36,46.36,46.36
XS GIS Cut Line=5
513460.1786393441622401.30526085 513466.911611231622408.89304963
513478.5227127211622422.51355134513490.1338142121622436.13405305
513501.3224924821622449.23212419
Node Last Edited Time=Nov/09/2012 10:39:56
#Sta/Elev= 63 
  -28.45   33.08  -27.43   33.07  -26.41   33.06  -25.39   33.05  -24.37   33.05
  -23.35   33.07  -22.34   33.03  -21.32   32.33   -20.3   31.05  -19.28   29.76
  -18.26   29.76  -17.24   28.35  -16.22   27.71   -15.2   27.69  -14.18   27.62
  -13.17   27.63  -12.15   27.63  -11.13   27.66  -10.11   27.66   -9.09   27.66
   -8.07   27.64   -7.05   27.49   -6.03   27.44   -5.02   27.42      -4   27.42
   -2.98   27.41   -1.96   27.39    -.94   27.37     .08   27.37     1.1   27.35
    2.12   27.36    3.14   27.42    4.15   27.42    5.17   27.53    6.19   27.62
    7.21   27.79    8.23   27.99    9.25   27.99   10.27   28.16   11.29   28.34
    12.3   28.41   13.32   28.51   14.34   28.69   15.36   28.76   16.38   28.94
    17.4   29.11   18.42   29.11   19.44   29.29   20.46   29.47   21.47   29.54
   22.49   29.64   23.51   29.82   24.53   29.89   25.55   30.07   26.57   30.19
   27.59   30.19   28.61    30.2   29.62   30.19   30.64   30.18   31.66   30.19
   32.68   30.17    33.7   30.18   34.72   30.18
#Mann= 3 ,-1 , 0 
  -28.45      .2       0  -17.24     .03       0   10.27      .2       0
Bank Sta=-17.24,10.27
XS Rating Curve= 0 ,0
XS HTab Starting El and Incr=27.4,0.3, 60 
Exp/Cntr=0.3,0.1

Type RM Length L Ch R = 1 ,9.53846*,46.01,55.39,46.01
XS GIS Cut Line=5
513428.9910441091622429.36196225513434.0425267291622437.75213215
513443.6928806891622453.27587649513453.3432346481622468.79962082
513463.3119160611622484.81713293
Node Last Edited Time=Nov/09/2012 10:39:56
#Sta/Elev= 65 
  -27.74    28.6  -26.72   27.45   -25.7   27.65  -24.68   27.65  -23.66   27.76
  -22.64   27.76  -21.62    27.8  -20.61   27.79  -19.59   27.85  -18.57   27.78
  -17.55    27.8  -16.53    27.8  -15.51   27.87  -14.49   27.94  -13.47   27.98
  -12.45   28.03  -11.43   27.99  -10.42   27.65    -9.4   27.54   -8.38   27.44
   -7.36   27.44   -6.34   27.46   -5.32   27.46    -4.3   27.46   -3.28    27.4
   -2.26   27.29   -1.24   27.29    -.23   27.21     .79   27.21    1.81   27.13
    2.83   27.11    3.85   27.11    4.87   27.13    5.89   27.13    6.91   27.64
    7.93   27.92    8.95   28.33    9.96   28.67   10.98   28.97      12   29.24
   13.02   29.26   14.04   29.26   15.06   29.27   16.08   29.28    17.1   29.36
   18.12   29.37   19.14   29.44   20.16   29.43   21.17   29.43   22.19   29.42
   23.21   29.44   24.23   29.45   25.25    29.5   26.27   29.49   27.29    29.5
   28.31    29.5   29.33   29.47   30.35    29.5   31.36   29.51   32.38   29.58
    33.4   29.69   34.42   29.92   35.44   30.26   36.46   30.26   37.48   30.56
#Mann= 3 ,-1 , 0 
  -27.74      .2       0  -27.74     .03       0    7.93      .2       0
Bank Sta=-27.74,7.93
XS Rating Curve= 0 ,0
XS HTab Starting El and Incr=27.16,0.3, 60 
Exp/Cntr=0.3,0.1

Type RM Length L Ch R = 1 ,9.46153*,46.64,46.64,46.64
XS GIS Cut Line=5
 513402.450257591622435.97924266513401.4326070161622445.36689271
 513399.191313361622463.89155164513396.9500197041622482.41621056
513394.1780729421622502.73620104
Node Last Edited Time=Nov/09/2012 10:39:56
#Sta/Elev= 67 
  -27.03   33.28  -26.01   33.28  -24.99   33.11  -23.97   33.03  -22.95   32.16
  -21.93   30.61  -20.92   29.43   -19.9   27.79  -18.88   27.11  -17.86   27.11
  -16.84   27.22  -15.82    27.3   -14.8   27.43  -13.78    27.5  -12.76   27.61
  -11.74   27.76  -10.72   27.84    -9.7   28.01   -8.68   28.03   -7.67   28.02
   -6.65   28.06   -5.63   28.09   -4.61   28.13   -3.59   28.13   -2.57   28.06
   -1.55   27.95    -.53    27.9     .49   27.87    1.51   27.64    2.53   27.41
    3.55   27.08    4.57   27.03    5.58   27.06     6.6   27.06    7.62   27.07
    8.64   27.07    9.66   27.05   10.68   27.03    11.7   27.11   12.72   27.43
   13.74   27.75   14.76   28.07   15.78   28.39    16.8   28.72   17.82   29.04
   18.84   29.36   19.85   29.84   20.87   30.16   21.89   30.48   22.91   30.81
   23.93   31.13   24.95   31.45   25.97   31.77   26.99   32.24   28.01    32.5
   29.03   32.58   30.05   32.57   31.07   32.62   32.09   32.64    33.1   32.68
   34.12   32.67   35.14   32.66   36.16   32.64   37.18   32.59    38.2    32.6
   39.22   32.54   40.24   32.55
#Mann= 3 ,-1 , 0 
  -27.03      .2       0   -19.9     .03       0   14.76      .2       0
Bank Sta=-19.9,14.76
XS Rating Curve= 0 ,0
XS HTab Starting El and Incr=27.08,0.3, 60 
Exp/Cntr=0.3,0.1

Type RM Length L Ch R = 6 ,9.404   ,,,
BEGIN DESCRIPTION:
S2788068_to_chan
END DESCRIPTION:
Node Last Edited Time=Oct/11/2012 15:01:27
Lateral Weir Pos= 3 
Lateral Weir End=                ,                ,        ,S2788068        
Lateral Weir Distance=1
Lateral Weir TW Multiple XS=0
Lateral Weir WD=20
Lateral Weir Coef=0.3
Lateral Weir WSCriteria=-1 
Lateral Weir Flap Gates= 0 
Lateral Weir Hagers EQN= 0 ,,,,,
Lateral Weir SS=0.05,0.05,
Lateral Weir Type= 0 
Lateral Weir Connection Pos and Dist= 0 ,
Lateral Weir SE= 4 
       0   32.63  14.547   32.51  29.093   32.45   43.64   32.53
Lateral Weir HW RS Station=9.46153 ,-0.058
Lateral Weir TW RS Station=,0
LW Div RC= 0 ,False,

Type RM Length L Ch R = 1 ,9.38461*,40.76,40.76,40.76
XS GIS Cut Line=5
513378.9448214641622420.01063637513373.1502217761622427.01660092
513359.9344795881622440.72394153  513346.71873741622454.43128214
513331.1901121241622470.22371628
Node Last Edited Time=Nov/09/2012 10:39:56
#Sta/Elev= 69 
  -26.32   30.16   -25.3   30.16  -24.28   29.89  -23.26   29.43  -22.24   29.15
  -21.22   28.92  -20.21   28.72  -19.19   28.34  -18.17   28.28  -17.15   28.31
  -16.13   28.35  -15.11   28.38  -14.09   28.27  -13.07   28.17  -12.05   27.82
  -11.03   27.39  -10.01   27.31   -8.99   26.98   -7.97   26.92   -6.95   26.94
   -5.93   26.94   -4.91   26.96   -3.89   26.97   -2.88   26.95   -1.86   26.95
    -.84   26.96     .18   26.92     1.2   26.98    2.22   27.02    3.24   27.11
    4.26   27.11    5.28   27.23     6.3   27.27    7.32   27.41    8.34   27.63
    9.36   27.85   10.38   28.06    11.4   28.36   12.42   29.14   13.44   29.92
   14.45   29.92   15.47    30.7   16.49   31.47   17.51   31.99   18.53   32.32
   19.55   32.54   20.57   32.59   21.59   32.59   22.61   32.63   23.63   32.62
   24.65   32.59   25.67    32.6   26.69    32.6   27.71   32.58   28.73   32.59
   29.75   32.57   30.77   32.59   31.79   32.54    32.8   32.54   33.82   32.57
   34.84   32.56   35.86   32.55   36.88   32.53    37.9   32.49   38.92   32.48
   39.94    32.5   40.96    32.5   41.98   32.52      43   32.52
#Mann= 3 ,-1 , 0 
  -26.32      .2       0  -12.05     .03       0    9.36      .2       0
Bank Sta=-12.05,9.36
XS Rating Curve= 0 ,0
XS HTab Starting El and Incr=26.97,0.3, 60 
Exp/Cntr=0.3,0.1

Type RM Length L Ch R = 1 ,9.30769*,46.85,46.85,46.85
XS GIS Cut Line=5
513358.191196741 1622390.2049007513350.3543002851622394.07627395
513333.1742636421622403.13409539513315.9942269991622412.19191683
513295.0500935681622423.47298271
Node Last Edited Time=Nov/09/2012 10:39:56
#Sta/Elev= 71 
  -25.61   28.55  -24.59   28.38  -23.57   28.39  -22.56   28.41  -21.54   28.32
  -20.52   28.28   -19.5    28.2  -18.48   28.21  -17.46   28.17  -16.44    28.1
  -15.42    28.1   -14.4   28.04  -13.38      28  -12.36      28  -11.34   27.99
  -10.32   28.01    -9.3   28.01   -8.28   27.93   -7.26   27.81   -6.24    27.4
   -5.22    27.4    -4.2   27.18   -3.18   26.86   -2.16   26.83   -1.14   26.78
    -.12   26.79      .9   26.81    1.92   26.82    2.94   26.85    3.95   26.92
    4.97    26.9    5.99   26.97    7.01   27.04    8.03   27.09    9.05   27.15
   10.07   27.22   11.09   27.18   12.11   27.15   13.13   27.11   14.15   27.25
   15.17   27.67   16.19   27.76   17.21   27.81   18.23   28.24   19.25   28.36
   20.27   28.79   21.29   29.14   22.31   29.58   23.33   29.93   24.35   30.37
   25.37   30.37   26.39    30.8   27.41   31.16   28.43   31.59   29.45   31.65
   30.46   31.78   31.48   31.87    32.5   32.03   33.52   32.11   34.54   32.27
   35.56   32.27   36.58   32.39    37.6   32.39   38.62   32.38   39.64   32.41
   40.66   32.38   41.68   32.37    42.7   32.36   43.72    32.3   44.74   32.28
   45.76   32.28
#Mann= 3 ,-1 , 0 
  -25.61      .2       0   -7.26     .03       0   15.17      .2       0
Bank Sta=-7.26,15.17
XS Rating Curve= 0 ,0
XS HTab Starting El and Incr=26.83,0.3, 60 
Exp/Cntr=0.3,0.1

Type RM Length L Ch R = 6 ,9.25    ,,,
BEGIN DESCRIPTION:
S2788069_to_chan
END DESCRIPTION:
Node Last Edited Time=Oct/11/2012 15:01:28
Lateral Weir Pos= 3 
Lateral Weir End=                ,                ,        ,S2788069        
Lateral Weir Distance=1
Lateral Weir TW Multiple XS=-1
Lateral Weir WD=20
Lateral Weir Coef=0.3
Lateral Weir WSCriteria=-1 
Lateral Weir Flap Gates= 0 
Lateral Weir Hagers EQN= 0 ,,,,,
Lateral Weir SS=0.05,0.05,
Lateral Weir Type= 0 
Lateral Weir Connection Pos and Dist= 0 ,
Lateral Weir SE= 6 
       0   32.25  27.918   31.81  55.836   31.33  83.754   31.02 111.672   31.08
  139.59   28.99
Lateral Weir HW RS Station=9.30769 ,-0.058
Lateral Weir TW RS Station=,0
LW Div RC= 0 ,False,

Type RM Length L Ch R = 1 ,9.23076*,47.15,47.15,47.15
XS GIS Cut Line=5
513335.8212265351622349.07894344513328.495420508 1622353.1687772
513310.9318117561622362.31527506513293.3682030041622371.46177292
 513270.736698721622383.05916598
Node Last Edited Time=Nov/09/2012 10:39:56
#Sta/Elev= 73 
  -24.91   31.14  -23.89   30.02  -22.87   29.46  -21.85   28.37  -20.83   27.79
  -19.81   27.79  -18.79   27.81  -17.77   27.85  -16.75   27.76  -15.73   27.78
  -14.71   27.77  -13.69   27.77  -12.67   27.77  -11.65    27.8  -10.63   27.79
   -9.61   27.78   -8.59   27.77   -7.57   27.68   -6.55   27.65   -5.53   27.41
   -4.51   27.24   -3.49      27   -2.47      27   -1.45   26.88    -.43   26.92
     .59   26.89    1.61   26.88    2.63   26.86    3.65   26.86    4.67   26.85
    5.69   26.85    6.71   26.85    7.73   26.86    8.75   26.86    9.77   26.85
   10.79   26.88   11.81   27.22   12.83    27.7   13.85   28.46   14.87   28.96
   15.89   29.65   16.91   29.69   17.93   29.74   18.95   29.74   19.97   29.81
   20.99   29.85   22.01   29.88   23.03   29.96   24.04      30   25.06   30.03
   26.08   30.09    27.1   30.09   28.12   30.26   29.14   30.55   30.16   30.55
   31.18   30.63    32.2    30.7   33.22    30.7   34.24   30.75   35.26   30.77
   36.28   30.95    37.3   31.13   38.32   31.24   39.34   31.29   40.36   31.38
   41.38   31.38    42.4   31.47   43.42   31.52   44.44   31.59   45.46   31.64
   46.48   31.66    47.5   31.61   48.52   31.61
#Mann= 3 ,-1 , 0 
  -24.91      .2       0   -6.55     .03       0   12.83      .2       0
Bank Sta=-6.55,12.83
XS Rating Curve= 0 ,0
XS HTab Starting El and Incr=26.9,0.3, 60 
Exp/Cntr=0.3,0.1

Type RM Length L Ch R = 1 ,9.15384*,48.59,48.59,48.59
XS GIS Cut Line=5
513317.0893001791622306.64535842513310.0617035231622310.54957878
513292.1483623611622319.84915735  513274.23502121622329.14873592
 513250.091572571622341.39328077
Node Last Edited Time=Nov/09/2012 10:39:56
#Sta/Elev= 75 
   -24.2   32.22  -23.18    30.5  -22.16   29.16  -21.14   27.67  -20.12   27.45
   -19.1   27.59  -18.08   27.65  -17.06   27.71  -16.04    27.7  -15.02   27.74
     -14   27.73  -12.98   27.71  -11.96   27.72  -10.94   27.72   -9.92   27.77
    -8.9   27.76   -7.88   27.69   -6.86   27.44   -5.84   27.08   -4.82   26.86
    -3.8   26.83   -2.78   26.84   -1.76   26.85    -.74   26.85     .28   26.86
     1.3   26.87    2.32   26.88    3.34   26.88    4.36   26.89    5.38   26.89
     6.4   26.89    7.42   26.89    8.44    26.9    9.46    26.9   10.48    26.9
    11.5   27.25   12.52    27.5   13.54   27.75   14.56   27.93   15.58   28.03
    16.6   28.12   17.62   28.13   18.64   28.32   19.66   28.69   20.68   29.03
    21.7    29.4   22.72   29.72   23.74   30.09   24.76   30.28   25.78   30.43
    26.8   30.51   27.82   30.51   28.84   30.59   29.86    30.7   30.88   30.87
    31.9   30.96   32.92   31.16   33.94   31.12   34.96   31.15   35.98   31.12
      37   31.12   38.02    31.2   39.04    31.2   40.06    31.2   41.08   31.17
    42.1   31.13   43.12   31.12   44.14    31.1   45.16   31.09   46.18   31.03
    47.2   30.98   48.22   30.98   49.24   30.98   50.26   30.98   51.28   31.01
#Mann= 3 ,-1 , 0 
   -24.2      .2       0   -7.88     .03       0   12.52      .2       0
Bank Sta=-7.88,12.52
XS Rating Curve= 0 ,0
XS HTab Starting El and Incr=26.88,0.3, 60 
Exp/Cntr=0.3,0.1

Type RM Length L Ch R = 1 ,9.07692*,50.37,51.74,50.37
XS GIS Cut Line=5
513296.6831478181622270.04092847513289.3714085541622272.41802592
513269.9096026491622279.06102317513250.4477967451622285.70402042
513223.1043318041622294.46221285
Node Last Edited Time=Nov/09/2012 10:39:56
#Sta/Elev= 77 
  -23.49   27.31  -22.47   27.15  -21.45   26.99  -20.43   27.01  -19.41   27.11
  -18.39   27.06  -17.37   26.98  -16.35   26.96  -15.33   26.88  -14.31   26.86
  -13.29   26.89  -12.27   26.89  -11.25   26.89  -10.23   26.88   -9.21   26.87
   -8.19   26.86   -7.17   26.86   -6.15   26.85   -5.13   26.84   -4.11   26.83
   -3.09   26.82   -2.07   26.81   -1.05   26.81    -.03    26.8     .99   26.79
    2.01   26.82    3.04   26.96    4.06   27.05    5.08   27.46     6.1   27.62
    7.12   27.63    8.14   27.62    9.16   27.75   10.18   27.75    11.2   27.74
   12.22   27.71   13.24   27.72   14.26   27.77   15.28   27.92    16.3   28.06
   17.32   28.14   18.34   28.29   19.36   28.44   20.38   28.66    21.4   28.81
   22.42   28.96   23.44   29.18   24.46    29.3   25.48   29.25    26.5   29.23
   27.52   29.18   28.54   29.11   29.56   29.03   30.58   29.02    31.6   28.95
   32.62   28.95   33.64   28.97   34.66   28.99   35.68   29.04    36.7   28.94
   37.72   28.87   38.74   28.84   39.76   28.81   40.78   28.77    41.8   28.79
   42.82   28.83   43.84   28.89   44.86   28.96   45.88   29.01    46.9   28.91
   47.92   28.94   48.94   28.98   49.96   28.95   50.98   28.95      52    28.9
   53.02   28.95   54.04   28.95
#Mann= 3 ,-1 , 0 
  -23.49      .2       0  -23.49     .03       0    5.08      .2       0
Bank Sta=-23.49,5.08
XS Rating Curve= 0 ,0
XS HTab Starting El and Incr=26.84,0.3, 60 
Exp/Cntr=0.3,0.1

Type RM Length L Ch R = 1 ,9       ,55.1,56.62,55.1
BEGIN DESCRIPTION:
604
END DESCRIPTION:
XS GIS Cut Line=5
 513293.424498781622240.84740951513286.2438480011622239.33783994
513266.3197171811622232.87770167513246.3955863611622226.41756341
513217.7264009561622216.44894437
Node Last Edited Time=Nov/09/2012 10:39:56