Flow Title=ondoy_28_09_2012
Program Version=4.10
Use Restart= 0 
Initial Flow Loc=Buli River      ,Buli Creek      ,1       ,5
Initial Flow Loc=Laguna_fake     ,Laguna_fake     ,500     ,0
Initial Flow Loc=Mahaba          ,Mahaba          ,2.2*    ,5
Initial Flow Loc=Marikina River  ,upper_marik_z5  ,6344.022,5
Initial Flow Loc=Marikina River  ,Upper_marikina  ,33000   ,100
Initial Flow Loc=Marikina River  ,Upper_marikina_z,29083.3*,100
Initial Flow Loc=Marikina River  ,mari_east1      ,6042.652,5
Initial Flow Loc=Marikina River  ,Upper_marik_z3  ,25161.4*,100
Initial Flow Loc=Marikina River  ,Upper_marik_z3b ,19973.2*,100
Initial Flow Loc=Marikina River  ,Marikina-Tumana ,18807.4*,100
Initial Flow Loc=Marikina River  ,Floodway        ,8200    ,20
Initial Flow Loc=Marikina River  ,Floodway2       ,5200    ,20
Initial Flow Loc=Marikina River  ,Floodway3       ,3600    ,20
Initial Flow Loc=Marikina River  ,Floodway3       ,3650.*  ,20
Initial Flow Loc=Marikina River  ,Lower Marikina  ,6500    ,10
Initial Flow Loc=Marikina River  ,Floodway4       ,2000    ,20
Initial Flow Loc=Nangka          ,Nangka River    ,10      ,10
Initial Flow Loc=Oro_rivers      ,Oro_reach1      ,6149.584,10
Initial Flow Loc=Pasig River     ,Napindan River  ,5700    ,30
Initial Flow Loc=Pasig River     ,Napindan_5      ,2925    ,30
Initial Flow Loc=Pasig River     ,Pasig River     ,17100   ,20
Initial Flow Loc=Pasig River     ,Sanjuan_l1      ,3145.66 ,30
Initial Flow Loc=Pasig River     ,Sanjuan_l1      ,3644.5* ,10
Initial Flow Loc=Pasig River     ,Sanjuan_l1      ,7062.5  ,30
Initial Flow Loc=Pasig River     ,Lower Pasig     ,7100    ,30
Initial Flow Loc=Sapang Baho     ,Upper Baho1     ,7       ,3
Initial Flow Loc=Sapang Baho     ,Upper Baho2     ,1       ,3
Initial Flow Loc=Sapang Baho     ,Baho-kaliwa     ,4       ,5
Initial Flow Loc=Sapang Baho     ,Upper_baho3     ,3462    ,0
Initial Flow Loc=Sapang Baho     ,Baho_k2         ,2.75*   ,6
Initial Flow Loc=Sapang Baho     ,upper_baho4     ,1820    ,0
Initial Flow Loc=Sapang Baho     ,Baho_k3         ,2.48333*,6
Initial Flow Loc=Sapang Baho     ,Baho-Kanan      ,1       ,5
Initial Flow Loc=Sapang Baho     ,Sapang Baho     ,2       ,5
Initial Flow Loc=Tapayan_network ,Creek1          ,2000    ,0.01
Initial Flow Loc=Tapayan_network ,Creek7          ,1100    ,0.01
Initial Flow Loc=Tapayan_network ,Creek2          ,430     ,0.01
Initial Flow Loc=Tapayan_network ,Creek4          ,1950    ,0.01
Initial Flow Loc=Tapayan_network ,Creek3          ,1270    ,0.01
Initial Flow Loc=Tapayan_network ,Creek6          ,575     ,0.01
Initial Flow Loc=Tapayan_network ,Creek6          ,1667.497,0.01
Initial Flow Loc=Tapayan_network ,Creek6.5        ,575     ,0.01
Initial Flow Loc=Tapayan_network ,Creek6.5        ,1175    ,0.01
Initial Flow Loc=Tapayan_network ,Creek5          ,800     ,0.01
Initial Flow Loc=Tapayan_network ,Creek8          ,1740    ,0.01
Initial Flow Loc=Tapayan_network ,Creek10         ,1050    ,0.01
Initial Flow Loc=Tapayan_network ,Creek11         ,1200    ,0.01
Initial Flow Loc=Tapayan_network ,Baho2           ,1100    ,0.01
Initial Storage Elev=S1785235        ,16.65
Initial Storage Elev=S1955485        ,57.9
Initial Storage Elev=S1955486        ,57.9
Initial Storage Elev=S1955490        ,59.4
Initial Storage Elev=S1955491        ,52.9
Initial Storage Elev=S1955492        ,53.4
Initial Storage Elev=S1955493        ,69.4
Initial Storage Elev=S1955494        ,55.4
Initial Storage Elev=S1955495        ,63.4
Initial Storage Elev=S1955496        ,63.4
Initial Storage Elev=S1955497        ,65.4
Initial Storage Elev=S1955498        ,45.4
Initial Storage Elev=S1955499        ,43.9
Initial Storage Elev=S1955500        ,42.15
Initial Storage Elev=S1955522        ,37.9
Initial Storage Elev=S1955523        ,31.4
Initial Storage Elev=S1955528        ,27.65
Initial Storage Elev=S1955529        ,26.15
Initial Storage Elev=S1955530        ,27.15
Initial Storage Elev=S1955531        ,27.65
Initial Storage Elev=S1955532        ,26.65
Initial Storage Elev=S1955533        ,27.15
Initial Storage Elev=S1955534        ,62.9
Initial Storage Elev=S1955535        ,37.9
Initial Storage Elev=S1955536        ,34.65
Initial Storage Elev=S1955540        ,47.9
Initial Storage Elev=S1955541        ,37.9
Initial Storage Elev=S1955542        ,37.9
Initial Storage Elev=S1955543        ,32.15
Initial Storage Elev=S1955544        ,33.65
Initial Storage Elev=S1955546        ,30.15
Initial Storage Elev=S1955547        ,28.65
Initial Storage Elev=S1955553        ,22.65
Initial Storage Elev=S1955554        ,38.9
Initial Storage Elev=S1955557        ,36.9
Initial Storage Elev=S1955558        ,34.65
Initial Storage Elev=S1955560        ,28.65
Initial Storage Elev=S1955562        ,30.65
Initial Storage Elev=S1955563        ,31.65
Initial Storage Elev=S1955564        ,32.9
Initial Storage Elev=S1955565        ,34.9
Initial Storage Elev=S1955566        ,29.65
Initial Storage Elev=S1955567        ,28.65
Initial Storage Elev=S1955568        ,39.4
Initial Storage Elev=S1955569        ,37.15
Initial Storage Elev=S1955570        ,37.15
Initial Storage Elev=S1955571        ,39.65
Initial Storage Elev=S1955572        ,39.15
Initial Storage Elev=S1955575        ,31.4
Initial Storage Elev=S1955576        ,47.4
Initial Storage Elev=S1955577        ,40.65
Initial Storage Elev=S1955578        ,39.9
Initial Storage Elev=S1955579        ,39.4
Initial Storage Elev=S1955580        ,31.9
Initial Storage Elev=S1955581        ,29.15
Initial Storage Elev=S1955582        ,30.15
Initial Storage Elev=S1955586        ,31.9
Initial Storage Elev=S1955587        ,24.9
Initial Storage Elev=S1955588        ,22.65
Initial Storage Elev=S1955589        ,19.65
Initial Storage Elev=S1955590        ,16.65
Initial Storage Elev=S1955592        ,26.9
Initial Storage Elev=S1955593        ,30.65
Initial Storage Elev=S1955594        ,30.65
Initial Storage Elev=S1955595        ,26.15
Initial Storage Elev=S1955596        ,27.15
Initial Storage Elev=S1955598        ,29.65
Initial Storage Elev=S1955599        ,33.15
Initial Storage Elev=S1955604        ,30.15
Initial Storage Elev=S1955607        ,27.65
Initial Storage Elev=S1955608        ,29.65
Initial Storage Elev=S1955609        ,26.15
Initial Storage Elev=S1955610        ,28.15
Initial Storage Elev=S1955611        ,24.15
Initial Storage Elev=S1955612        ,22.65
Initial Storage Elev=S1955613        ,21.15
Initial Storage Elev=S1955614        ,22.15
Initial Storage Elev=S1955615        ,20.65
Initial Storage Elev=S1955616        ,21.15
Initial Storage Elev=S1955617        ,20.15
Initial Storage Elev=S1955618        ,21.15
Initial Storage Elev=S1955619        ,31.15
Initial Storage Elev=S1955620        ,30.15
Initial Storage Elev=S1955621        ,24.65
Initial Storage Elev=S1955622        ,20.65
Initial Storage Elev=S1955623        ,30.65
Initial Storage Elev=S1955624        ,35.4
Initial Storage Elev=S1955625        ,32.65
Initial Storage Elev=S1955628        ,31.15
Initial Storage Elev=S1955632        ,22.65
Initial Storage Elev=S1955633        ,22.65
Initial Storage Elev=S1955634        ,19.15
Initial Storage Elev=S1955635        ,23.15
Initial Storage Elev=S1955636        ,22.15
Initial Storage Elev=S1955637        ,20.9
Initial Storage Elev=S1955638        ,20.9
Initial Storage Elev=S1955639        ,28.65
Initial Storage Elev=S1955640        ,23.65
Initial Storage Elev=S1955709        ,35.4
Initial Storage Elev=S1955710        ,33.4
Initial Storage Elev=S1955711        ,23.4
Initial Storage Elev=S1955712        ,39.9
Initial Storage Elev=S1955713        ,15.65
Initial Storage Elev=S1955714        ,13.65
Initial Storage Elev=S1955715        ,22.15
Initial Storage Elev=S1955716        ,22.9
Initial Storage Elev=S1955717        ,22.9
Initial Storage Elev=S1955718        ,21.9
Initial Storage Elev=S1955719        ,12.9
Initial Storage Elev=S1955720        ,22.9
Initial Storage Elev=S1955721        ,42.9
Initial Storage Elev=S1955722        ,25.4
Initial Storage Elev=S1955723        ,25.4
Initial Storage Elev=S1955724        ,19.4
Initial Storage Elev=S1955729        ,17.65
Initial Storage Elev=S1955732        ,18.15
Initial Storage Elev=S1955733        ,19.15
Initial Storage Elev=S1955734        ,19.65
Initial Storage Elev=S1955735        ,19.7
Initial Storage Elev=S1955736        ,16.65
Initial Storage Elev=S1955737        ,19.9
Initial Storage Elev=S1955738        ,18.65
Initial Storage Elev=S1955739        ,19.15
Initial Storage Elev=S1955742        ,22.15
Initial Storage Elev=S1955743        ,20.15
Initial Storage Elev=S1955744        ,17.65
Initial Storage Elev=S1955752        ,19.15
Initial Storage Elev=S1955753        ,19.7
Initial Storage Elev=S1955754        ,19.15
Initial Storage Elev=S1955755        ,19.65
Initial Storage Elev=S1955758        ,16.65
Initial Storage Elev=S1955759        ,18.65
Initial Storage Elev=S1955760        ,20.65
Initial Storage Elev=S1955761        ,23.4
Initial Storage Elev=S1955762        ,19.9
Initial Storage Elev=S1955763        ,23.4
Initial Storage Elev=S1955764        ,29.4
Initial Storage Elev=S1955773        ,18.15
Initial Storage Elev=S1955780        ,24.9
Initial Storage Elev=S1955781        ,19.15
Initial Storage Elev=S1955782        ,21.9
Initial Storage Elev=S1955783        ,28.15
Initial Storage Elev=S1955784        ,21.9
Initial Storage Elev=S1955785        ,19.9
Initial Storage Elev=S1955786        ,19.15
Initial Storage Elev=S1955787        ,20.9
Initial Storage Elev=S1955788        ,19.15
Initial Storage Elev=S1955789        ,25.15
Initial Storage Elev=S1955790        ,22.65
Initial Storage Elev=S1955791        ,21.15
Initial Storage Elev=S1955793        ,24.65
Initial Storage Elev=S1955794        ,26.15
Initial Storage Elev=S1955795        ,24.15
Initial Storage Elev=S1955796        ,27.15
Initial Storage Elev=S1955797        ,25.65
Initial Storage Elev=S1955798        ,24.15
Initial Storage Elev=S1955799        ,25.15
Initial Storage Elev=S1955803        ,32.9
Initial Storage Elev=S1955804        ,31.9
Initial Storage Elev=S1955809        ,25.65
Initial Storage Elev=S1955810        ,26.15
Initial Storage Elev=S1955812        ,24.65
Initial Storage Elev=S1955814        ,23.65
Initial Storage Elev=S1955816        ,31.15
Initial Storage Elev=S1955817        ,27.15
Initial Storage Elev=S1955819        ,27.65
Initial Storage Elev=S1955820        ,25.65
Initial Storage Elev=S1955821        ,24.65
Initial Storage Elev=S1955822        ,28.15
Initial Storage Elev=S1955825        ,25.4
Initial Storage Elev=S1955826        ,28.9
Initial Storage Elev=S1955827        ,26.65
Initial Storage Elev=S1955828        ,28.9
Initial Storage Elev=S1955829        ,32.9
Initial Storage Elev=S1955830        ,31.4
Initial Storage Elev=S1955832        ,25.4
Initial Storage Elev=S1955833        ,25.4
Initial Storage Elev=S1955834        ,21.15
Initial Storage Elev=S1955835        ,27.1
Initial Storage Elev=S1955839        ,32.65
Initial Storage Elev=S1955840        ,29.15
Initial Storage Elev=S1955841        ,27.65
Initial Storage Elev=S1955842        ,27.65
Initial Storage Elev=S1955847        ,27.65
Initial Storage Elev=S1955852        ,28.9
Initial Storage Elev=S1955853        ,29.9
Initial Storage Elev=S1955854        ,25.9
Initial Storage Elev=S1955855        ,26.65
Initial Storage Elev=S1955857        ,27.9
Initial Storage Elev=S1955858        ,27.65
Initial Storage Elev=S1955859        ,25.15
Initial Storage Elev=S1955860        ,26.65
Initial Storage Elev=S1955863        ,21.65
Initial Storage Elev=S1955867        ,20.65
Initial Storage Elev=S1955871        ,28.65
Initial Storage Elev=S1955872        ,27.15
Initial Storage Elev=S1955874        ,23.9
Initial Storage Elev=S1955875        ,23.65
Initial Storage Elev=S1955876        ,23.65
Initial Storage Elev=S1955878        ,23.15
Initial Storage Elev=S1955879        ,22.65
Initial Storage Elev=S1955880        ,22.65
Initial Storage Elev=S1955881        ,25.7
Initial Storage Elev=S1955882        ,21.65
Initial Storage Elev=S1955883        ,21.15
Initial Storage Elev=S1955884        ,17.65
Initial Storage Elev=S1955885        ,17.15
Initial Storage Elev=S1955886        ,22.65
Initial Storage Elev=S1955887        ,27.15
Initial Storage Elev=S1955893        ,37.4
Initial Storage Elev=S1955894        ,34.9
Initial Storage Elev=S1955895        ,32.9
Initial Storage Elev=S1955896        ,43.4
Initial Storage Elev=S1955897        ,40.9
Initial Storage Elev=S1955898        ,38.9
Initial Storage Elev=S1955899        ,33.9
Initial Storage Elev=S1955900        ,31.9
Initial Storage Elev=S1955901        ,28.9
Initial Storage Elev=S1955915        ,33.15
Initial Storage Elev=S1955917        ,33.15
Initial Storage Elev=S1955919        ,30.15
Initial Storage Elev=S1955920        ,27.65
Initial Storage Elev=S1955922        ,27.65
Initial Storage Elev=S1955924        ,26.15
Initial Storage Elev=S1955927        ,24.65
Initial Storage Elev=S1955928        ,25.65
Initial Storage Elev=S1955930        ,24.15
Initial Storage Elev=S1955931        ,25.65
Initial Storage Elev=S1955932        ,24.65
Initial Storage Elev=S1955933        ,26.15
Initial Storage Elev=S1955934        ,24.15
Initial Storage Elev=S1955935        ,21.15
Initial Storage Elev=S1955936        ,16.65
Initial Storage Elev=S1955941        ,26.9
Initial Storage Elev=S1955945        ,30.65
Initial Storage Elev=S1955946        ,28.65
Initial Storage Elev=S1955947        ,21.9
Initial Storage Elev=S1955948        ,23.15
Initial Storage Elev=S1955949        ,22.15
Initial Storage Elev=S1955950        ,20.65
Initial Storage Elev=S1955952        ,19.15
Initial Storage Elev=S1955953        ,19.15
Initial Storage Elev=S1955954        ,23.65
Initial Storage Elev=S1955955        ,24.9
Initial Storage Elev=S1955956        ,21.15
Initial Storage Elev=S1955957        ,21.9
Initial Storage Elev=S1955959        ,20.65
Initial Storage Elev=S1955960        ,20.65
Initial Storage Elev=S1955969        ,15.15
Initial Storage Elev=S1955974        ,14.65
Initial Storage Elev=S1955976        ,17.15
Initial Storage Elev=S1955977        ,17.15
Initial Storage Elev=S1955978        ,17.65
Initial Storage Elev=S1955979        ,17.65
Initial Storage Elev=S1955980        ,16.65
Initial Storage Elev=S1955981        ,16.15
Initial Storage Elev=S1955982        ,17.7
Initial Storage Elev=S1955983        ,18.1
Initial Storage Elev=S1955984        ,17.15
Initial Storage Elev=S1955985        ,18.15
Initial Storage Elev=S1955986        ,16.15
Initial Storage Elev=S1955987        ,16.65
Initial Storage Elev=S1955988        ,17.65
Initial Storage Elev=S1955989        ,17.9
Initial Storage Elev=S1955990        ,16.65
Initial Storage Elev=S1955993        ,17.65
Initial Storage Elev=S1955994        ,18.15
Initial Storage Elev=S1955995        ,18.3
Initial Storage Elev=S1955996        ,18.15
Initial Storage Elev=S1955998        ,18.65
Initial Storage Elev=S1955999        ,17.65
Initial Storage Elev=S1956000        ,19.65
Initial Storage Elev=S1956001        ,18.65
Initial Storage Elev=S1956002        ,18.65
Initial Storage Elev=S1956003        ,19.15
Initial Storage Elev=S1956004        ,19.1
Initial Storage Elev=S1956005        ,19.15
Initial Storage Elev=S1956006        ,19.65
Initial Storage Elev=S1956013        ,18.15
Initial Storage Elev=S1956016        ,16.65
Initial Storage Elev=S1956017        ,17.65
Initial Storage Elev=S1956019        ,18.15
Initial Storage Elev=S1956023        ,18.65
Initial Storage Elev=S1956024        ,18.65
Initial Storage Elev=S1956027        ,16.15
Initial Storage Elev=S1956029        ,19.15
Initial Storage Elev=S1956031        ,15.65
Initial Storage Elev=S1956035        ,15.65
Initial Storage Elev=S1956036        ,17.15
Initial Storage Elev=S1956038        ,18.15
Initial Storage Elev=S1956040        ,18.65
Initial Storage Elev=S1956041        ,18.65
Initial Storage Elev=S1956042        ,18.15
Initial Storage Elev=S1956043        ,19.15
Initial Storage Elev=S1956044        ,20.65
Initial Storage Elev=S1956045        ,18.65
Initial Storage Elev=S1956046        ,19.65
Initial Storage Elev=S1956047        ,18.15
Initial Storage Elev=S1956048        ,22.15
Initial Storage Elev=S1956049        ,18.65
Initial Storage Elev=S1956050        ,19.15
Initial Storage Elev=S1956051        ,20.15
Initial Storage Elev=S1956052        ,20.15
Initial Storage Elev=S1956053        ,17.65
Initial Storage Elev=S1956054        ,17.65
Initial Storage Elev=S1956055        ,19.15
Initial Storage Elev=S1956057        ,19.65
Initial Storage Elev=S1956058        ,19.15
Initial Storage Elev=S1956059        ,18.65
Initial Storage Elev=S1956060        ,18.15
Initial Storage Elev=S1956061        ,17.65
Initial Storage Elev=S1956062        ,19.15
Initial Storage Elev=S1956063        ,18.65
Initial Storage Elev=S1956064        ,17.65
Initial Storage Elev=S1956065        ,18.15
Initial Storage Elev=S1956066        ,18.15
Initial Storage Elev=S1956067        ,18.65
Initial Storage Elev=S1956068        ,18.15
Initial Storage Elev=S1956069        ,18.15
Initial Storage Elev=S1956070        ,18.65
Initial Storage Elev=S1956071        ,18.65
Initial Storage Elev=S1956072        ,18.65
Initial Storage Elev=S1956076        ,25.9
Initial Storage Elev=S1956077        ,23.4
Initial Storage Elev=S1956079        ,24.15
Initial Storage Elev=S1956080        ,20.9
Initial Storage Elev=S1956081        ,27.4
Initial Storage Elev=S1956082        ,23.4
Initial Storage Elev=S1956083        ,19.4
Initial Storage Elev=S1956084        ,21.15
Initial Storage Elev=S1956088        ,26.15
Initial Storage Elev=S1956089        ,22.15
Initial Storage Elev=S1956090        ,20.15
Initial Storage Elev=S1956091        ,18.65
Initial Storage Elev=S1956092        ,17.15
Initial Storage Elev=S1956094        ,25.4
Initial Storage Elev=S1956095        ,21.65
Initial Storage Elev=S1956096        ,21.15
Initial Storage Elev=S1956098        ,20.65
Initial Storage Elev=S1956100        ,19.15
Initial Storage Elev=S1956102        ,17.65
Initial Storage Elev=S1956104        ,16.65
Initial Storage Elev=S1956107        ,20.9
Initial Storage Elev=S1956108        ,21.9
Initial Storage Elev=S1956109        ,19.9
Initial Storage Elev=S1956110        ,18.65
Initial Storage Elev=S1956111        ,18.15
Initial Storage Elev=S1956112        ,20.65
Initial Storage Elev=S1956113        ,18.15
Initial Storage Elev=S1956114        ,19.15
Initial Storage Elev=S1956115        ,16.65
Initial Storage Elev=S1956116        ,18.15
Initial Storage Elev=S1956117        ,18.15
Initial Storage Elev=S1956118        ,17.15
Initial Storage Elev=S1956119        ,19.15
Initial Storage Elev=S1956120        ,17.65
Initial Storage Elev=S1956122        ,16.15
Initial Storage Elev=S1956126        ,21.15
Initial Storage Elev=S1956127        ,22.9
Initial Storage Elev=S1956128        ,17.65
Initial Storage Elev=S1956129        ,18.65
Initial Storage Elev=S1956131        ,17.15
Initial Storage Elev=S1956132        ,15.65
Initial Storage Elev=S1956133        ,16.15
Initial Storage Elev=S1956134        ,15.15
Initial Storage Elev=S1956146        ,17.9
Initial Storage Elev=S1956147        ,19.4
Initial Storage Elev=S1956148        ,23.4
Initial Storage Elev=S1956149        ,27.9
Initial Storage Elev=S1956150        ,17.4
Initial Storage Elev=S1956151        ,27.9
Initial Storage Elev=S1956153        ,23.4
Initial Storage Elev=S1956154        ,27.4
Initial Storage Elev=S1956155        ,37.9
Initial Storage Elev=S1956275        ,11.15
Initial Storage Elev=S1956276        ,12.15
Initial Storage Elev=S1956277        ,11.15
Initial Storage Elev=S1956278        ,11.15
Initial Storage Elev=S1956279        ,12.15
Initial Storage Elev=S1956280        ,12.15
Initial Storage Elev=S1956281        ,11.65
Initial Storage Elev=S1956283        ,11.15
Initial Storage Elev=S1956284        ,11.15
Initial Storage Elev=S1956285        ,15.9
Initial Storage Elev=S1956286        ,12.15
Initial Storage Elev=S1956288        ,11.65
Initial Storage Elev=S1956290        ,11.15
Initial Storage Elev=S1956291        ,11.65
Initial Storage Elev=S1956292        ,11.65
Initial Storage Elev=S1956293        ,11.65
Initial Storage Elev=S1956294        ,10.15
Initial Storage Elev=S1956295        ,11.15
Initial Storage Elev=S1956296        ,10.15
Initial Storage Elev=S1956297        ,11.65
Initial Storage Elev=S1956298        ,11.65
Initial Storage Elev=S1956299        ,11.15
Initial Storage Elev=S1956300        ,12.15
Initial Storage Elev=S1956301        ,10.65
Initial Storage Elev=S1956302        ,11.65
Initial Storage Elev=S1956303        ,-12.1
Initial Storage Elev=S1956304        ,13.65
Initial Storage Elev=S1956305        ,-14.1
Initial Storage Elev=S1956306        ,-13.1
Initial Storage Elev=S1956307        ,12.15
Initial Storage Elev=S1956308        ,12.65
Initial Storage Elev=S1956309        ,14.15
Initial Storage Elev=S1956310        ,12.15
Initial Storage Elev=S1956311        ,12.65
Initial Storage Elev=S1956312        ,10.65
Initial Storage Elev=S1956313        ,11.15
Initial Storage Elev=S1956314        ,11.65
Initial Storage Elev=S1956315        ,11.65
Initial Storage Elev=S1956316        ,12.65
Initial Storage Elev=S1956322        ,12.65
Initial Storage Elev=S1956323        ,12.15
Initial Storage Elev=S1956324        ,12.9
Initial Storage Elev=S1956325        ,10.9
Initial Storage Elev=S1956326        ,12.15
Initial Storage Elev=S1956327        ,12.9
Initial Storage Elev=S1956328        ,9.65
Initial Storage Elev=S1956330        ,11.65
Initial Storage Elev=S1956351        ,11.65
Initial Storage Elev=S1956352        ,13.15
Initial Storage Elev=S1956353        ,11.15
Initial Storage Elev=S1956354        ,10.15
Initial Storage Elev=S1956355        ,10.65
Initial Storage Elev=S1956357        ,11.9
Initial Storage Elev=S1956358        ,17.15
Initial Storage Elev=S1956359        ,15.15
Initial Storage Elev=S1956361        ,11.15
Initial Storage Elev=S1956364        ,18.9
Initial Storage Elev=S1956366        ,30.15
Initial Storage Elev=S1956375        ,20.15
Initial Storage Elev=S1956377        ,15.9
Initial Storage Elev=S1956379        ,11.65
Initial Storage Elev=S1956380        ,10.9
Initial Storage Elev=S1956382        ,15.15
Initial Storage Elev=S1956388        ,21.15
Initial Storage Elev=S1956390        ,14.15
Initial Storage Elev=S1956392        ,18.65
Initial Storage Elev=S1956393        ,10.9
Initial Storage Elev=S1956394        ,14.65
Initial Storage Elev=S1956395        ,13.9
Initial Storage Elev=S1956396        ,14.9
Initial Storage Elev=S1956397        ,15.15
Initial Storage Elev=S1956398        ,15.15
Initial Storage Elev=S1956399        ,6.65
Initial Storage Elev=S1956400        ,15.15
Initial Storage Elev=S1956401        ,12.65
Initial Storage Elev=S1956402        ,12.15
Initial Storage Elev=S1956403        ,28.9
Initial Storage Elev=S1956404        ,14.9
Initial Storage Elev=S1956405        ,12.9
Initial Storage Elev=S1956406        ,15.9
Initial Storage Elev=S1956407        ,13.9
Initial Storage Elev=S1956408        ,15.9
Initial Storage Elev=S1956409        ,14.9
Initial Storage Elev=S1956410        ,12.65
Initial Storage Elev=S1956411        ,13.4
Initial Storage Elev=S1956412        ,14.9
Initial Storage Elev=S1956414        ,17.15
Initial Storage Elev=S1956415        ,21.65
Initial Storage Elev=S1956416        ,11.65
Initial Storage Elev=S1956417        ,12.15
Initial Storage Elev=S1956419        ,13.15
Initial Storage Elev=S1956421        ,11.65
Initial Storage Elev=S1956423        ,11.65
Initial Storage Elev=S1956424        ,12.65
Initial Storage Elev=S1956426        ,11.15
Initial Storage Elev=S1956427        ,10.15
Initial Storage Elev=S1956428        ,11.65
Initial Storage Elev=S1956429        ,12.15
Initial Storage Elev=S1956430        ,11.65
Initial Storage Elev=S1956431        ,12.15
Initial Storage Elev=S1956432        ,12.15
Initial Storage Elev=S1956433        ,12.15
Initial Storage Elev=S1956434        ,12.15
Initial Storage Elev=S1956435        ,13.15
Initial Storage Elev=S1956436        ,12.65
Initial Storage Elev=S1956437        ,12.65
Initial Storage Elev=S1956438        ,12.15
Initial Storage Elev=S1956439        ,12.15
Initial Storage Elev=S1956440        ,11.15
Initial Storage Elev=S1956441        ,10.65
Initial Storage Elev=S1956442        ,12.15
Initial Storage Elev=S1956443        ,12.15
Initial Storage Elev=S1956444        ,11.15
Initial Storage Elev=S1956445        ,12.15
Initial Storage Elev=S1956448        ,13.4
Initial Storage Elev=S1956449        ,12.9
Initial Storage Elev=S1956450        ,11.15
Initial Storage Elev=S1956451        ,11.15
Initial Storage Elev=S1956452        ,15.4
Initial Storage Elev=S1956453        ,12.15
Initial Storage Elev=S1956454        ,10.65
Initial Storage Elev=S1956456        ,13.65
Initial Storage Elev=S1956457        ,13.15
Initial Storage Elev=S1956458        ,13.65
Initial Storage Elev=S1956459        ,13.15
Initial Storage Elev=S1956460        ,13.15
Initial Storage Elev=S1956461        ,12.15
Initial Storage Elev=S1956469        ,14.15
Initial Storage Elev=S1956471        ,14.15
Initial Storage Elev=S1956473        ,12.65
Initial Storage Elev=S1956474        ,13.65
Initial Storage Elev=S1956475        ,15.15
Initial Storage Elev=S1956478        ,15.65
Initial Storage Elev=S1956479        ,15.65
Initial Storage Elev=S1956481        ,12.65
Initial Storage Elev=S1956483        ,12.65
Initial Storage Elev=S1956485        ,12.15
Initial Storage Elev=S1956486        ,11.65
Initial Storage Elev=S1956488        ,12.65
Initial Storage Elev=S1956489        ,10.65
Initial Storage Elev=S1956491        ,11.15
Initial Storage Elev=S1956492        ,11.15
Initial Storage Elev=S1956493        ,11.65
Initial Storage Elev=S1956494        ,11.65
Initial Storage Elev=S1956497        ,11.15
Initial Storage Elev=S1956498        ,11.15
Initial Storage Elev=S1956499        ,11.65
Initial Storage Elev=S1956500        ,11.65
Initial Storage Elev=S1956501        ,11.65
Initial Storage Elev=S1956502        ,12.65
Initial Storage Elev=S1956503        ,11.15
Initial Storage Elev=S1956504        ,11.15
Initial Storage Elev=S1956505        ,12.15
Initial Storage Elev=S1956506        ,11.15
Initial Storage Elev=S1956507        ,11.15
Initial Storage Elev=S1956508        ,11.15
Initial Storage Elev=S1956509        ,11.15
Initial Storage Elev=S1956510        ,11.65
Initial Storage Elev=S1956511        ,11.65
Initial Storage Elev=S1956512        ,12.15
Initial Storage Elev=S1956513        ,12.15
Initial Storage Elev=S1956514        ,11.15
Initial Storage Elev=S1956515        ,11.15
Initial Storage Elev=S1956516        ,11.15
Initial Storage Elev=S1956517        ,14.65
Initial Storage Elev=S1956519        ,13.15
Initial Storage Elev=S1956521        ,13.15
Initial Storage Elev=S1956523        ,16.9
Initial Storage Elev=S1956524        ,19.9
Initial Storage Elev=S1956525        ,14.65
Initial Storage Elev=S1956526        ,15.65
Initial Storage Elev=S1956534        ,17.9
Initial Storage Elev=S1956535        ,16.65
Initial Storage Elev=S1956543        ,30.9
Initial Storage Elev=S1956544        ,32.65
Initial Storage Elev=S1956545        ,24.9
Initial Storage Elev=S1956546        ,23.65
Initial Storage Elev=S1956547        ,21.65
Initial Storage Elev=S1956548        ,18.65
Initial Storage Elev=S1956560        ,16.65
Initial Storage Elev=S1956561        ,17.65
Initial Storage Elev=S1956562        ,14.15
Initial Storage Elev=S1956563        ,13.65
Initial Storage Elev=S1956564        ,12.65
Initial Storage Elev=S1956565        ,12.15
Initial Storage Elev=S1956566        ,12.15
Initial Storage Elev=S1956573        ,14.9
Initial Storage Elev=S1956577        ,15.4
Initial Storage Elev=S1956578        ,16.9
Initial Storage Elev=S1956579        ,11.15
Initial Storage Elev=S1956580        ,13.15
Initial Storage Elev=S1956581        ,12.65
Initial Storage Elev=S1956582        ,12.15
Initial Storage Elev=S1956761        ,13.4
Initial Storage Elev=S1956762        ,13.65
Initial Storage Elev=S1956763        ,11.15
Initial Storage Elev=S1956764        ,11.15
Initial Storage Elev=S1956765        ,32.65
Initial Storage Elev=S1956767        ,30.15
Initial Storage Elev=S1956768        ,30.65
Initial Storage Elev=S1956769        ,29.9
Initial Storage Elev=S1956770        ,28.65
Initial Storage Elev=S1956771        ,28.65
Initial Storage Elev=S1956772        ,28.65
Initial Storage Elev=S1956777        ,19.15
Initial Storage Elev=S1956778        ,12.65
Initial Storage Elev=S1956779        ,13.15
Initial Storage Elev=S1956780        ,10.65
Initial Storage Elev=S1956781        ,13.1
Initial Storage Elev=S1956782        ,10.65
Initial Storage Elev=S1956783        ,12.65
Initial Storage Elev=S1956784        ,10.65
Initial Storage Elev=S1956785        ,12.15
Initial Storage Elev=S1956786        ,12.65
Initial Storage Elev=S1956787        ,11.65
Initial Storage Elev=S1956788        ,11.15
Initial Storage Elev=S1956789        ,11.65
Initial Storage Elev=S1956790        ,11.65
Initial Storage Elev=S1956791        ,10.65
Initial Storage Elev=S1956798        ,16.65
Initial Storage Elev=S252876         ,26.9
Initial Storage Elev=S252877         ,27.4
Initial Storage Elev=S252878         ,31.4
Initial Storage Elev=S2787965        ,33.65
Initial Storage Elev=S2787966        ,31.65